Of course. As a professional ABAQUS input file maker, I will generate a complete and accurate input file (`.inp`) based on the stress-strain data provided for sample **A32880**.

The following file simulates a simple uniaxial tensile test on a single 3D element (C3D8R) to verify the material model.

### Assumptions Made:
1.  **Units:** The simulation uses **MPa** for stress, **mm** for length, and **N** for force.
2.  **Elastic Properties:** The report does not specify Young's Modulus (E) or Poisson's Ratio (ν). Standard values for steel (E = 200,000 MPa, ν = 0.3) are used.
3.  **Data Conversion:** The provided engineering stress-strain data has been converted to the **True Stress** and **True Plastic Strain** format required by ABAQUS for the `*PLASTIC` keyword. The first data point (44.85 MPa) is treated as the initial yield stress.

---

Here is the ABAQUS input file for sample **A32880**:

```abaqus
*HEADING
** ABAQUS Input File for 4340 Steel - Sample A32880
** Simulation of a uniaxial tensile test using a single C3D8R element.
** Data extracted from "INDUSTRIAL REPORT ON FORGING OF 4340 STEEL SAMPLES"
**
** UNITS: N, mm, s, MPa (MegaPascals)
**
*PART, NAME=Specimen-Part
*NODE
1, 0.0, 0.0, 0.0
2, 1.0, 0.0, 0.0
3, 1.0, 1.0, 0.0
4, 0.0, 1.0, 0.0
5, 0.0, 0.0, 1.0
6, 1.0, 0.0, 1.0
7, 1.0, 1.0, 1.0
8, 0.0, 1.0, 1.0
*ELEMENT, TYPE=C3D8R, ELSET=Specimen-Elset
1, 1, 2, 3, 4, 5, 6, 7, 8
** Define Node Sets for Boundary Conditions
*NSET, NSET=Fixed-Face
1, 4, 5, 8
*NSET, NSET=Pull-Face
2, 3, 6, 7
*NSET, NSET=Constraint-Nodes
1, 4, 5
*SOLID SECTION, ELSET=Specimen-Elset, MATERIAL=STEEL_4340_A32880
,
*END PART
**
*ASSEMBLY, NAME=Assembly
*INSTANCE, NAME=Specimen-Inst, PART=Specimen-Part
*END INSTANCE
**
*MATERIAL, NAME=STEEL_4340_A32880
** Material properties for 4340 Steel from sample A32880.
** Elastic properties are typical for steel as they were not provided in the report.
*ELASTIC
200000., 0.3
** Plastic data converted from engineering stress-strain to true stress vs. true plastic strain.
** True Stress (MPa), True Plastic Strain
*PLASTIC
 44.85, 0.00000
 46.97, 0.02055
 48.27, 0.02318
 49.51, 0.02444
 50.84, 0.02736
 52.12, 0.02930
 53.46, 0.03220
 54.80, 0.03509
 56.21, 0.03894
 57.63, 0.04277
 59.06, 0.04661
 60.55, 0.05135
 61.27, 0.05323
 62.07, 0.05609
 62.78, 0.05796
 64.36, 0.06358
 65.22, 0.06733
 66.82, 0.07291
 68.56, 0.08034
 70.39, 0.08859
** ... 11 like lines cut
**
*STEP, NAME=Pull, NLGEOM=YES, INC=100
*STATIC
0.01, 1.0, 1e-05, 1.0
**
*BOUNDARY
** Fix one face (X=0) in the pull direction (U1)
Fixed-Face, 1, 1, 0.0
** Apply displacement to the other face (X=1) to achieve a max engineering strain of 0.5
Pull-Face, 1, 1, 0.5
** Add constraints to prevent rigid body motion in other directions
Constraint-Nodes, 2, 2, 0.0
Constraint-Nodes, 3, 3, 0.0
**
*OUTPUT, FIELD, FREQUENCY=1
*NODE OUTPUT
U, RF
*ELEMENT OUTPUT, DIRECTIONS=YES
S, E, LE, PE, PEEQ
**
*OUTPUT, HISTORY, FREQUENCY=1
*NODE OUTPUT, NSET=Pull-Face
U1, RF1
*END STEP
```