*Heading
** Job name: Compression Model name: Model-1
** Generated by: Abaqus/CAE 2023
*Preprint, echo=NO, model=NO, history=NO, contact=NO
**
** PARTS
**
*Part, name=Part-1
*End Part
**  
**
** ASSEMBLY
**
*Assembly, name=Assembly
**  
*Instance, name=Part-1-1, part=Part-1
*Node
      1,  -161.0858306,   118.5383988,            0.
      2,  -184.7730712,    76.5435256,            0.
      3,  -197.7219696,    30.1002216,            0.
      4,  -199.1799774,   -18.0924015,            0.
      5,   -189.062378,   -65.2335586,            0.
      6,  -167.9571534,    -108.58358,            0.
      7,  -137.0908814,   -145.623108,            0.
      8,     -98.25737,  -174.1995698,            0.
      9,   -53.7135048,   -192.652176,            0.
     10,    -6.0480065,  -199.9085388,            0.
     11,    41.9689826,   -195.546936,            0.
     12,    87.5468826,  -179.8208618,            0.
     13,   128.0368804,  -153.6442566,            0.
     14,   161.0858306,  -118.5383988,            0.
     15,   184.7730712,   -76.5435256,            0.
     16,   197.7219696,   -30.1002216,            0.
     17,   199.1799774,    18.0924015,            0.
     18,    189.062378,    65.2335586,            0.
     19,   167.9571534,     108.58358,            0.
     20,   137.0908814,    145.623108,            0.
** ... 631 like lines cut
*Element, type=C3D8R
  1, 168, 116, 115, 121,  75,  23,  22,  28
  2, 121, 115, 114, 122,  28,  22,  21,  29
  3, 122, 114, 113, 123,  29,  21,  20,  30
  4, 153, 128, 129, 178,  60,  35,  36,  85
  5, 104, 132, 131, 105,  11,  39,  38,  12
  6, 157, 149, 177, 186,  64,  56,  84,  93
  7, 140,  96,  95, 141,  47,   3,   2,  48
  8, 131, 132, 146, 130,  38,  39,  53,  37
  9, 166, 152, 182, 164,  73,  59,  89,  71
 10, 153, 147, 127, 128,  60,  54,  34,  35
 11, 149, 157, 148, 176,  56,  64,  55,  83
 12, 175, 145, 121, 122,  82,  52,  28,  29
 13, 120, 117, 116, 168,  27,  24,  23,  75
 14, 103, 133, 132, 104,  10,  40,  39,  11
 15, 133, 169, 135, 161,  40,  76,  42,  68
 16, 137, 136, 100,  99,  44,  43,   7,   6
 17, 155, 186, 177, 147,  62,  93,  84,  54
 18, 141,  95,  94, 142,  48,   2,   1,  49
 19, 141, 142, 144, 150,  48,  49,  51,  57
 20, 174, 168, 121, 145,  81,  75,  28,  52
** ... 454 like lines cut
*Nset, nset=Set-1, generate
   1,  651,    1
*Elset, elset=Set-1, generate
   1,  474,    1
** Section: Section-1
*Solid Section, elset=Set-1, material=Material-1
,
*End Instance
**  
*Nset, nset=fixed, instance=Part-1-1, generate
  1,  93,   1
*Nset, nset=loading, instance=Part-1-1, generate
 559,  651,    1
*End Assembly
** 
** MATERIALS
** 
*Material, name=Material-1
*Elastic
210000., 0.33
*Plastic
39.,   0.
40., 0.02
44., 0.03
47., 0.04
50., 0.05
52., 0.06
54., 0.07
55., 0.08
56., 0.09
58.,  0.1
59.,  0.2
60.,  0.2
60.,  0.6
** ----------------------------------------------------------------
** 
** STEP: Step-1
** 
*Step, name=Step-1, nlgeom=NO
*Static
1., 1., 1e-05, 1.
** 
** BOUNDARY CONDITIONS
** 
** Name: fixed Type: Displacement/Rotation
*Boundary
fixed, 1, 1
fixed, 2, 2
fixed, 3, 3
fixed, 4, 4
fixed, 5, 5
fixed, 6, 6
** Name: loading Type: Displacement/Rotation
*Boundary
loading, 3, 3, -90.
** 
** OUTPUT REQUESTS
** 
*Restart, write, frequency=0
** 
** FIELD OUTPUT: F-Output-1
** 
*Output, field, variable=PRESELECT
** 
** HISTORY OUTPUT: H-Output-1
** 
*Output, history, variable=PRESELECT
*End Step
