*Heading
** Job name: Compression Model name: Model-1
** Generated by: Abaqus/CAE 2023
*Preprint, echo=NO, model=NO, history=NO, contact=NO
**
** PARTS
**
*Part, name=Part-1
*End Part
**  
**
** ASSEMBLY
**
*Assembly, name=Assembly
**  
*Instance, name=Part-1-1, part=Part-1
*Node
      1,  -38.8877983,    31.428318,           0.
      2,  -47.9547386,   14.1542625,           0.
      3,  -49.7946587,   4.52678728,           0.
      4,  -49.7210007,   -5.2746501,           0.
      5,  -47.7365952,  -14.8733854,           0.
      6,  -38.4110641,  -32.0092201,           0.
      7,   -31.428318,  -38.8877983,           0.
      8,  -23.2377968,  -44.2719421,           0.
      9,  -4.52678728,  -49.7946587,           0.
     10,    5.2746501,  -49.7210007,           0.
     11,   14.8733854,  -47.7365952,           0.
     12,   23.9005451,  -43.9176941,           0.
     13,   38.8877983,   -31.428318,           0.
     14,   44.2719421,  -23.2377968,           0.
     15,   47.9547386,  -14.1542625,           0.
     16,   49.7946587,  -4.52678728,           0.
     17,   47.7365952,   14.8733854,           0.
     18,   43.9176941,   23.9005451,           0.
     19,   38.4110641,   32.0092201,           0.
     20,   23.2377968,   44.2719421,           0.
** ... 2172 like lines cut
*Element, type=C3D8R
   1,  186,  169,  160,  194,   49,   32,   23,   57
   2,  158,  188,  187,  159,   21,   51,   50,   22
   3,  157,  171,  188,  158,   20,   34,   51,   21
   4,  170,  161,  169,  186,   33,   24,   32,   49
   5,  171,  157,  168,  185,   34,   20,   31,   48
   6,  184,  167,  153,  172,   47,   30,   16,   35
   7,  172,  153,  152,  197,   35,   16,   15,   60
   8,  183,  166,  149,  173,   46,   29,   12,   36
   9,  173,  149,  148,  199,   36,   12,   11,   62
  10,  183,  173,  260,  189,   46,   36,  123,   52
  11,  145,  174,  182,  165,    8,   37,   45,   28
  12,  196,  212,  256,  185,   59,   75,  119,   48
  13,  174,  145,  144,  251,   37,    8,    7,  114
  14,  211,  260,  173,  199,   74,  123,   36,   62
  15,  175,  181,  142,  141,   38,   44,    5,    4
  16,  217,  219,  201,  250,   80,   82,   64,  113
  17,  141,  140,  176,  175,    4,    3,   39,   38
  18,  190,  181,  175,  202,   53,   44,   38,   65
  19,  139,  163,  178,  177,    2,   26,   41,   40
  20,  218,  174,  201,  224,   81,   37,   64,   87
** ... 1780 like lines cut
*Nset, nset=Set-1, generate
    1,  2192,     1
*Elset, elset=Set-1, generate
    1,  1800,     1
** Section: Section-1
*Solid Section, elset=Set-1, material=Material-1
,
*End Instance
**  
*Nset, nset=fixed, instance=Part-1-1, generate
   1,  137,    1
*Nset, nset=loading, instance=Part-1-1, generate
 2056,  2192,     1
*End Assembly
** 
** MATERIALS
** 
*Material, name=Material-1
*Elastic
210000., 0.33
*Plastic
39.,   0.
40., 0.02
44., 0.03
47., 0.04
50., 0.05
52., 0.06
54., 0.07
55., 0.08
56., 0.09
58.,  0.1
59.,  0.2
60.,  0.5
60.,  0.6
** ----------------------------------------------------------------
** 
** STEP: Step-1
** 
*Step, name=Step-1, nlgeom=NO
*Static
1., 1., 1e-05, 1.
** 
** BOUNDARY CONDITIONS
** 
** Name: fixed Type: Displacement/Rotation
*Boundary
fixed, 1, 1
fixed, 2, 2
fixed, 3, 3
fixed, 4, 4
fixed, 5, 5
fixed, 6, 6
** Name: loading Type: Displacement/Rotation
*Boundary
loading, 3, 3, -50.
** 
** OUTPUT REQUESTS
** 
*Restart, write, frequency=0
** 
** FIELD OUTPUT: F-Output-1
** 
*Output, field, variable=PRESELECT
** 
** HISTORY OUTPUT: H-Output-1
** 
*Output, history, variable=PRESELECT
*End Step
